Circuit: * C:\Users\Jan\Desktop\2018-08-18 Retro Meter v02\v03\Spice simulation\Draft1.asc

Limiting rise time of source v1 to 0.05
Limiting fall time of source v1 to 0.05
Direct Newton iteration for .op point succeeded.

Date: Sat Oct 06 18:55:31 2018
Total elapsed time: 0.173 seconds.

tnom = 27
temp = 27
method = modified trap
totiter = 8532
traniter = 8506
tranpoints = 3981
accept = 2580
rejected = 1401
matrix size = 9
fillins = 0
solver = Normal
Matrix Compiler1: 314 bytes object code size  0.2/0.1/[0.0]
Matrix Compiler2:      52 opcodes  0.1/[0.1]/0.1

